case33.py
from numpy import array
def case33(t=0):
    ppc = {"version": '2'}

    ## system MVA base
    ppc["baseMVA"] = 10
    ppc["T"] = 1 # np.size(P_d0,0) # 时段数
    ## bus data ,按 kW 计算负荷
    # bus_i type Pd Qd Gs Bs area Vm Va baseKV zone Vmax Vmin
    ppc["bus"] = array([
        [1, 3, 0, 0, 0, 0, 1, 1, 0, 12.66, 1, 1.1, 0.9],
        [2, 1, 100, 60, 0, 0, 1, 1, 0, 12.66, 1, 1.1, 0.9],
        [3, 1, 90, 40, 0, 0, 1, 1, 0, 12.66, 1, 1.1, 0.9],
        [4, 1, 120, 80, 0, 0, 1, 1, 0, 12.66, 1, 1.1, 0.9],
        [5, 1, 60, 30, 0, 0, 1, 1, 0, 12.66, 1, 1.1, 0.9],
        [6, 1, 60, 20, 0, 0, 1, 1, 0, 12.66, 1, 1.1, 0.9],
        [7, 1, 200, 100, 0, 0, 1, 1, 0, 12.66, 1, 1.1, 0.9],
        [8, 1, 200, 100, 0, 0, 1, 1, 0, 12.66, 1, 1.1, 0.9],
        [9, 1, 60, 20, 0, 0, 1, 1, 0, 12.66, 1, 1.1, 0.9],
        [10, 1, 60, 20, 0, 0, 1, 1, 0, 12.66, 1, 1.1, 0.9],
        [11, 1, 45, 30, 0, 0, 1, 1, 0, 12.66, 1, 1.1, 0.9],
        [12, 1, 60, 35, 0, 0, 1, 1, 0, 12.66, 1, 1.1, 0.9],
        [13, 1, 60, 35, 0, 0, 1, 1, 0, 12.66, 1, 1.1, 0.9],
        [14, 1, 120, 80, 0, 0, 1, 1, 0, 12.66, 1, 1.1, 0.9],
        [15, 1, 60, 10, 0, 0, 1, 1, 0, 12.66, 1, 1.1, 0.9],
        [16, 1, 60, 20, 0, 0, 1, 1, 0, 12.66, 1, 1.1, 0.9],
        [17, 1, 60, 20, 0, 0, 1, 1, 0, 12.66, 1, 1.1, 0.9],
        [18, 1, 90, 40, 0, 0, 1, 1, 0, 12.66, 1, 1.1, 0.9],
        [19, 1, 90, 40, 0, 0, 1, 1, 0, 12.66, 1, 1.1, 0.9],
        [20, 1, 90, 40, 0, 0, 1, 1, 0, 12.66, 1, 1.1, 0.9],
        [21, 1, 90, 40, 0, 0, 1, 1, 0, 12.66, 1, 1.1, 0.9],
        [22, 1, 90, 40, 0, 0, 1, 1, 0, 12.66, 1, 1.1, 0.9],
        [23, 1, 90, 50, 0, 0, 1, 1, 0, 12.66, 1, 1.1, 0.9],
        [24, 1, 420, 200, 0, 0, 1, 1, 0, 12.66, 1, 1.1, 0.9],
        [25, 1, 420, 200, 0, 0, 1, 1, 0, 12.66, 1, 1.1, 0.9],
        [26, 1, 60, 25, 0, 0, 1, 1, 0, 12.66, 1, 1.1, 0.9],
        [27, 1, 60, 25, 0, 0, 1, 1, 0, 12.66, 1, 1.1, 0.9],
        [28, 1, 60, 20, 0, 0, 1, 1, 0, 12.66, 1, 1.1, 0.9],
        [29, 1, 120, 70, 0, 0, 1, 1, 0, 12.66, 1, 1.1, 0.9],
        [30, 1, 200, 600, 0, 0, 1, 1, 0, 12.66, 1, 1.1, 0.9],
        [31, 1, 150, 70, 0, 0, 1, 1, 0, 12.66, 1, 1.1, 0.9],
        [32, 1, 210, 100, 0, 0, 1, 1, 0, 12.66, 1, 1.1, 0.9],
        [33, 1, 60, 40, 0, 0, 1, 1, 0, 12.66, 1, 1.1, 0.9]
    ])

    ## generator data
    # bus Pg Qg Qmax Qmin Vg mBase status Pmax Pmin Pc1 Pc2 Qc1min Qc1max Qc2min Qc2max ramp_agc ramp_10 ramp_30 ramp_q apf
    ppc["gen"] = array([
        [1, 0, 0, 10, -10, 1, 100, 1, 10, 0, 0, 0, 0, 0, 0, 0, 0, 0, 0, 0, 0]
    ])

    ## branch data (有名值)
    # fbus tbus r x b rateA rateB rateC ratio angle status angmin angmax
    ppc["branch"] = array([
        [1, 2, 0.0922, 0.0470, 0, 0, 0, 0, 0, 0, 1, -360, 360],
        [2, 3, 0.4930, 0.2511, 0, 0, 0, 0, 0, 0, 1, -360, 360],
        [3, 4, 0.3660, 0.1864, 0, 0, 0, 0, 0, 0, 1, -360, 360],
        [4, 5, 0.3811, 0.1941, 0, 0, 0, 0, 0, 0, 1, -360, 360],
        [5, 6, 0.8190, 0.7070, 0, 0, 0, 0, 0, 0, 1, -360, 360],
        [6, 7, 0.1872, 0.6188, 0, 0, 0, 0, 0, 0, 1, -360, 360],
        [7, 8, 0.7114, 0.2351, 0, 0, 0, 0, 0, 0, 1, -360, 360],
        [8, 9, 1.0300, 0.7400, 0, 0, 0, 0, 0, 0, 1, -360, 360],
        [9, 10, 1.0440, 0.7400, 0, 0, 0, 0, 0, 0, 1, -360, 360],
        [10, 11, 0.1966, 0.0650, 0, 0, 0, 0, 0, 0, 1, -360, 360],
        [11, 12, 0.3744, 0.1238, 0, 0, 0, 0, 0, 0, 1, -360, 360],
        [12, 13, 1.4680, 1.1550, 0, 0, 0, 0, 0, 0, 1, -360, 360],
        [13, 14, 0.5416, 0.7129, 0, 0, 0, 0, 0, 0, 1, -360, 360],
        [14, 15, 0.5910, 0.5260, 0, 0, 0, 0, 0, 0, 1, -360, 360],
        [15, 16, 0.7463, 0.5450, 0, 0, 0, 0, 0, 0, 1, -360, 360],
        [16, 17, 1.2890, 1.7210, 0, 0, 0, 0, 0, 0, 1, -360, 360],
        [17, 18, 0.7320, 0.5740, 0, 0, 0, 0, 0, 0, 1, -360, 360],
        [2, 19, 0.1640, 0.1565, 0, 0, 0, 0, 0, 0, 1, -360, 360],
        [19, 20, 1.5042, 1.3554, 0, 0, 0, 0, 0, 0, 1, -360, 360],
        [20, 21, 0.4095, 0.4784, 0, 0, 0, 0, 0, 0, 1, -360, 360],
        [21, 22, 0.7089, 0.9373, 0, 0, 0, 0, 0, 0, 1, -360, 360],
        [3, 23, 0.4512, 0.3083, 0, 0, 0, 0, 0, 0, 1, -360, 360],
        [23, 24, 0.8980, 0.7091, 0, 0, 0, 0, 0, 0, 1, -360, 360],
        [24, 25, 0.8960, 0.7011, 0, 0, 0, 0, 0, 0, 1, -360, 360],
        [6, 26, 0.2030, 0.1034, 0, 0, 0, 0, 0, 0, 1, -360, 360],
        [26, 27, 0.2842, 0.1447, 0, 0, 0, 0, 0, 0, 1, -360, 360],
        [27, 28, 1.0590, 0.9337, 0, 0, 0, 0, 0, 0, 1, -360, 360],
        [28, 29, 0.8042, 0.7006, 0, 0, 0, 0, 0, 0, 1, -360, 360],
        [29, 30, 0.5075, 0.2585, 0, 0, 0, 0, 0, 0, 1, -360, 360],
        [30, 31, 0.9744, 0.9630, 0, 0, 0, 0, 0, 0, 1, -360, 360],
        [31, 32, 0.3105, 0.3619, 0, 0, 0, 0, 0, 0, 1, -360, 360],
        [32, 33, 0.3410, 0.5302, 0, 0, 0, 0, 0, 0, 1, -360, 360],
        #[33, 31, 0.3410, 0.5302, 0, 0, 0, 0, 0, 0, 1, -360, 360], # 构造一个小环
    ])

    ## generator cost data
    # 1 startup shutdown n x1 y1 ... xn yn
    # 2 startup shutdown n c(n-1) ... c0
    ppc["gencost"] = array([
        [2, 0, 0, 3, 0, 20, 0]
    ])

    ## DR load data
    # bus, Pd, Qd, Qmax, Qmin, Vd, mBase, status, Pmax, Pmin, Pc1, Pc2,
    # Qc1min, Qc1max, Qc2min, Qc2max, ramp_agc, ramp_10, ramp_30, ramp_q, apf
    ppc["DRload"] = array([

    ])
    ## DR load cost data
    # 1 startup shutdown n x1 y1 ... xn yn
    # 2 startup shutdown n c(n-1) ... c0
    ppc["DRloadcost"] = array([

    ])

        # ===================== Data Center (DC) data: 新增 =====================
    # 两个数据中心挂接节点（1-indexed）：选 24号与30号母线
    # 所有口径按文档：kW / ms
    ppc["DC"] = {
        "bus": array([24, 30]),                 # 数据中心所在母线编号（1-indexed）
        "eta": array([1.0, 1.0]),               # η_k（kW/等价算力负荷），此处取1
        "Cbar": array([2000.0, 2000.0]),        # C̄_k（kW）物理上限（可选）
        "pf":  array([0.98, 0.98]),             # 功率因数（用于估算Q，若你不想加Q也可忽略）
        # 单业务源 S={1}：d_{s,t}（kW），当前 T=1，所以给一个标量序列
        "demand": array([1400]),              # d_{1,t}，t=0时 1400 kW
        # τ_{s,k}：单程网络时延（ms），S=1 => 长度=K
        "tau": array([6.0, 10.0]),              # 到两个DC的单程时延
        # 时延预算（ms）：Lmax = Lnet,max + Lq,max
        "Lnet_max": array([12.0]),              # L_net,max_{1,t}
        "Lq_max":   array([18.0]),              # L_q,max_{1,t}
        "Lmax":     array([30.0]),              # L_max_{1,t}
        "gamma":    0.01,                       # γ_s（ms/kW），S=1
        "B0":       0.0,                        # B_{s,0}（kW）
        "Bend":     0.0                         # B_end_s（kW），设为0表示必须全部服务完
    }


    ## convert branch impedances from Ohms to p.u.
    from pypower.idx_bus import BUS_I, PD, QD, BASE_KV
    from pypower.idx_brch import F_BUS, T_BUS, BR_R, BR_X

    Vbase = ppc["bus"][0][BASE_KV] * 1e3  # in Volts
    Sbase = ppc["baseMVA"] * 1e6  # in VA
    for branch in ppc["branch"]:
        branch[BR_R] /= (Vbase ** 2 / Sbase)
        branch[BR_X] /= (Vbase ** 2 / Sbase)

    ## convert loads from kW to MW
    for bus in ppc["bus"]:
        bus[PD] /= 1e3
        bus[QD] /= 1e3

    return ppc